/*--------------------------------*- C++ -*----------------------------------*\
| =========                 |                                                 |
| \\      /  F ield         | OpenFOAM: The Open Source CFD Toolbox           |
|  \\    /   O peration     | Version:  3.0.1                                 |
|   \\  /    A nd           | Web:      www.OpenFOAM.org                      |
|    \\/     M anipulation  |                                                 |
\*---------------------------------------------------------------------------*/
FoamFile
{
    version     2.0;
    format      ascii;
    class       polyBoundaryMesh;
    location    "constant/polyMesh";
    object      boundary;
}
// * * * * * * * * * * * * * * * * * * * * * * * * * * * * * * * * * * * * * //

6
(
    faceA
    {
        type            patch;
        nFaces          2;
        startFace       1;
    }
    faceB
    {
        type            patch;
        nFaces          2;
        startFace       3;
    }
    faceC
    {
        type            patch;
        nFaces          1;
        startFace       5;
    }
    faceD
    {
        type            patch;
        nFaces          1;
        startFace       6;
    }
    faceE
    {
        type            patch;
        nFaces          2;
        startFace       7;
    }
    faceF
    {
        type            patch;
        nFaces          2;
        startFace       9;
    }
)

// ************************************************************************* //
