/*--------------------------------*- C++ -*----------------------------------*\
| =========                 |                                                 |
| \\      /  F ield         | OpenFOAM: The Open Source CFD Toolbox           |
|  \\    /   O peration     | Version:  3.0.1                                 |
|   \\  /    A nd           | Web:      www.OpenFOAM.org                      |
|    \\/     M anipulation  |                                                 |
\*---------------------------------------------------------------------------*/
FoamFile
{
    version     2.0;
    format      ascii;
    class       dictionary;
    object      blockMeshDict;
}
// * * * * * * * * * * * * * * * * * * * * * * * * * * * * * * * * * * * * * //

convertToMeters 1.0;

vertices
(
    (0 0 0)
    (2 0 0)
    (0 1 0)
    (2 1 0)

    (0 0 1)
    (2 0 1)
    (0 1 1)
    (2 1 1)
);

blocks
(
    hex (0 1 3 2 4 5 7 6) (2 1 1) simpleGrading (1 1 1)
);

edges
(
);

boundary
(
    faceA
    {
        type patch;
        faces
        (
            (1 0 2 3)
        );
    }

    faceB
    {
        type patch;
        faces
        (
            (4 5 7 6)
        );
    }

    faceC
    {
        type patch;
        faces
        (
            (0 4 6 2)
        );
    }

    faceD
    {
        type patch;
        faces
        (
            (1 3 7 5)
        );
    }

    faceE
    {
        type patch;
        faces
        (
            (0 1 5 4)
        );
    }

    faceF
    {
        type patch;
        faces
        (
            (3 2 6 7)
        );
    }
);

mergePatchPairs
(
);

// ************************************************************************* //
